Version 4
SHEET 1 1456 1124
WIRE 544 -16 320 -16
WIRE 816 -16 608 -16
WIRE 1072 96 1072 64
WIRE 1280 96 1280 64
WIRE 96 112 -80 112
WIRE 224 112 224 80
WIRE 224 112 160 112
WIRE 320 112 320 -16
WIRE 320 112 224 112
WIRE 448 112 320 112
WIRE 816 112 816 -16
WIRE 816 112 704 112
WIRE 912 112 912 64
WIRE 912 112 816 112
WIRE -80 176 -80 112
WIRE 224 176 224 112
WIRE 320 176 320 112
WIRE 816 176 816 112
WIRE 912 176 912 112
WIRE 1072 208 1072 176
WIRE 1280 208 1280 176
WIRE -80 304 -80 256
WIRE 224 304 224 240
WIRE 224 304 -80 304
WIRE 320 304 320 240
WIRE 320 304 224 304
WIRE 576 304 576 208
WIRE 576 304 320 304
WIRE 816 304 816 240
WIRE 816 304 576 304
WIRE 912 304 912 240
WIRE 912 304 816 304
WIRE 1072 304 1072 272
WIRE 1280 304 1280 272
WIRE -80 336 -80 304
WIRE 1280 480 1280 432
WIRE 1280 592 1280 560
WIRE 1056 640 976 640
WIRE 1184 640 1136 640
WIRE 1216 640 1184 640
WIRE 1184 688 1184 640
WIRE 1184 816 1184 768
WIRE 1280 816 1280 688
WIRE 1280 816 1184 816
WIRE 1280 864 1280 816
FLAG 224 80 +V
FLAG -80 336 0
FLAG 912 64 +5V
FLAG 1280 432 +5V
FLAG 1280 864 0
FLAG 1072 304 0
FLAG 1072 64 +5V
FLAG 1280 304 0
FLAG 1280 64 led
FLAG 976 640 buzz
SYMBOL polcap 208 176 R0
WINDOW 3 24 56 Left 2
SYMATTR InstName C1
SYMATTR Value 470u
SYMATTR Description Capacitor
SYMATTR Type cap
SYMATTR SpiceLine V=35 Irms=580m Rser=0.12 Lser=0 mfg="Nichicon" pn="UPR1V471MPH" type="Al electrolytic"
SYMBOL cap 304 176 R0
SYMATTR InstName C2
SYMATTR Value 0.1u
SYMATTR SpiceLine V=50 Irms=728m Rser=0.14361 Lser=0 mfg="KEMET" pn="C0603C104K5RAC" type="X7R"
SYMBOL voltage -80 160 R0
SYMATTR InstName External
SYMATTR Value 12
SYMBOL EXTRA\\VolReg\\LM7805-1 576 112 R0
SYMATTR InstName U1
SYMBOL diode 608 -32 R90
WINDOW 0 0 32 VBottom 2
WINDOW 3 32 32 VTop 2
SYMATTR InstName D2
SYMATTR Value 1N4007
SYMBOL polcap 896 176 R0
WINDOW 3 24 56 Left 2
SYMATTR InstName C3
SYMATTR Value 10u
SYMATTR Description Capacitor
SYMATTR Type cap
SYMATTR SpiceLine V=10 Irms=0 Rser=2.5 Lser=0 mfg="AVX" pn="TAJC106M010" type="Tantalum"
SYMBOL cap 800 176 R0
SYMATTR InstName C4
SYMATTR Value 0.1u
SYMATTR SpiceLine V=50 Irms=728m Rser=0.14361 Lser=0 mfg="KEMET" pn="C0603C104K5RAC" type="X7R"
SYMBOL diode 96 128 R270
WINDOW 0 32 32 VTop 2
WINDOW 3 0 32 VBottom 2
SYMATTR InstName D1
SYMATTR Value 1N4007
SYMBOL npn 1216 592 R0
SYMATTR InstName Q1
SYMATTR Value BC817-25
SYMBOL res 1152 624 R90
WINDOW 0 0 56 VBottom 2
WINDOW 3 32 56 VTop 2
SYMATTR InstName R1
SYMBOL res 1200 784 R180
WINDOW 0 36 76 Left 2
WINDOW 3 36 40 Left 2
SYMATTR InstName R2
SYMBOL res 1264 464 R0
SYMATTR InstName Buzzer
SYMBOL res 1264 80 R0
SYMATTR InstName R3
SYMBOL LED 1264 208 R0
SYMATTR InstName D3
SYMATTR Value HIR5393C/L223
SYMATTR Description Diode
SYMATTR Type diode
SYMBOL LED 1056 208 R0
SYMATTR InstName D4
SYMATTR Value HIR5393C/L223
SYMATTR Description Diode
SYMATTR Type diode
SYMBOL res 1056 80 R0
SYMATTR InstName R4
